1

   Abaqus 6.14-2                                  Date 05-déc.-2019   Time 12:20:46
   For use at UNIVERSITE DE REIMS CHAMPAGNE_ ARDENNE under license from Dassault Systemes or its subsidiary.



                         The Abaqus Software is a product of:

                           Dassault Systemes Simulia Corp.
                                 Rising Sun Mills
                                 166 Valley Street
                           Providence, RI 02909-2499, USA
 


                   Available for internal use at UNIVERSITE DE REIMS CHAMPAGNE_ ARDENNE. 
                   The Abaqus Online Support System is accessible
                   through the "My Support" section of the SIMULIA
                   Home Page at http://www.simulia.com.

                   Support policies for academic licenses are described
                   on the SIMULIA web site at
                   http://www.3ds.com/products/simulia/academics/
 
                          On machine 009F2W03R076117 
                          you are authorized to run
                          Abaqus/Explicit until 31-May-2021

                          Your site id is: SIT00002666 


 
                    For assistance or any other information you may
                    obtain contact information for your local office
                    from the world wide web at:

                      http://www.3ds.com/products/simulia/locations/

 
                * * * * * * * * * * * * * * * * * * * * * * * * * * * * * * 
                *                                                         * 
                *                   *****************                     * 
                *                   *  N O T I C E  *                     * 
                *                   *****************                     * 
                *                                                         * 
                *                                                         * 
                *                    Abaqus 6.14-2                        * 
                *                                                         * 
                *          BUILD ID: 2014_08_22-16.00.46 134497           * 
                *                                                         * 
                *                                                         * 
                *  Please make sure you are using release 6.14 manuals    * 
                *  plus the notes accompanying this release.              * 
                *                                                         * 
                *                                                         * 
                *                                                         * 
                *                                                         * 
                *                                                         * 
                *   This program may not be used for commercial purposes  * 
                *           without payment of a commercial fee.          * 
                *                                                         * 
                * * * * * * * * * * * * * * * * * * * * * * * * * * * * * * 


 



     PROCESSING PART, INSTANCE, AND ASSEMBLY INFORMATION
   *******************************************************


     END PROCESSING PART, INSTANCE, AND ASSEMBLY INFORMATION
   ***********************************************************




     OPTIONS BEING PROCESSED
   ***************************


  *Heading
  *Node
  *Element, type=R3D3
  *Element, type=R3D4
  *Nset, nset=ASSEMBLY_PLAQUE-1_PLAQUE-REFPT_
  *Elset, elset=ASSEMBLY_PLAQUE-1_PLAQUE
  *Node
  *Element, type=R3D3
  *Element, type=R3D4
  *Nset, nset=ASSEMBLY_PLAQUE-2_PLAQUE-REFPT_
  *Elset, elset=ASSEMBLY_PLAQUE-2_PLAQUE
  *Node
  *Element, type=S4R
  *Element, type=S3

 ***NOTE: ELEMENT TYPES S3 AND S3R ARE IDENTICAL. ELEMENT TYPE S3 WILL BE 
          REFERRED TO AS S3R FROM HERE ON
  *Element, type=S4R
  *Element, type=S3

 ***NOTE: ELEMENT TYPES S3 AND S3R ARE IDENTICAL. ELEMENT TYPE S3 WILL BE 
          REFERRED TO AS S3R FROM HERE ON
  *Element, type=S4R
  *Element, type=S3

 ***NOTE: ELEMENT TYPES S3 AND S3R ARE IDENTICAL. ELEMENT TYPE S3 WILL BE 
          REFERRED TO AS S3R FROM HERE ON
  *Element, type=S4R
  *Nset, nset=ASSEMBLY_POT2-1_SET-1
  *Nset, nset=ASSEMBLY_POT2-1_SET-2
  *Nset, nset=ASSEMBLY_POT2-1_SET-3
  *Elset, elset=ASSEMBLY_POT2-1_SET-1
  *Elset, elset=ASSEMBLY_POT2-1_SET-2
  *Elset, elset=ASSEMBLY_POT2-1_SET-3
  *Nset, nset=ASSEMBLY_SET-1
  *Nset, nset=ASSEMBLY_SET-2
  *Elset, elset=ASSEMBLY__BAS_SNEG
  *Elset, elset=ASSEMBLY__HAUT_SPOS
  *rigidbody, refnode=ASSEMBLY_PLAQUE-1_PLAQUE-REFPT_, elset=ASSEMBLY_PLAQUE-1_PLAQUE
  *rigidbody, refnode=ASSEMBLY_PLAQUE-2_PLAQUE-REFPT_, elset=ASSEMBLY_PLAQUE-2_PLAQUE
  *rigidbody, refnode=ASSEMBLY_PLAQUE-1_PLAQUE-REFPT_, elset=ASSEMBLY_PLAQUE-1_PLAQUE
  *rigidbody, refnode=ASSEMBLY_PLAQUE-2_PLAQUE-REFPT_, elset=ASSEMBLY_PLAQUE-2_PLAQUE
  *rigidbody, refnode=ASSEMBLY_PLAQUE-1_PLAQUE-REFPT_, elset=ASSEMBLY_PLAQUE-1_PLAQUE
  *rigidbody, refnode=ASSEMBLY_PLAQUE-2_PLAQUE-REFPT_, elset=ASSEMBLY_PLAQUE-2_PLAQUE
  *rigidbody, refnode=ASSEMBLY_PLAQUE-1_PLAQUE-REFPT_, elset=ASSEMBLY_PLAQUE-1_PLAQUE
  *rigidbody, refnode=ASSEMBLY_PLAQUE-2_PLAQUE-REFPT_, elset=ASSEMBLY_PLAQUE-2_PLAQUE
  *surface, type=ELEMENT, name=ASSEMBLY_BAS
  *surface, type=ELEMENT, name=ASSEMBLY_HAUT
  *surface, type=ELEMENT, name=ASSEMBLY_BAS
  *surface, type=ELEMENT, name=ASSEMBLY_HAUT
  *rigidbody, refnode=ASSEMBLY_PLAQUE-1_PLAQUE-REFPT_, elset=ASSEMBLY_PLAQUE-1_PLAQUE
  *rigidbody, refnode=ASSEMBLY_PLAQUE-2_PLAQUE-REFPT_, elset=ASSEMBLY_PLAQUE-2_PLAQUE
  *material, name=PS-CHOC
  *density
  *elastic
  *plastic
  *surfaceinteraction, name=INTPROP-1
  *friction
  *shellsection, elset=ASSEMBLY_POT2-1_SET-3, material=PS-CHOC
  *shellsection, elset=ASSEMBLY_POT2-1_SET-2, material=PS-CHOC
  *shellsection, elset=ASSEMBLY_POT2-1_SET-1, material=PS-CHOC
  *rigidbody, refnode=ASSEMBLY_PLAQUE-1_PLAQUE-REFPT_, elset=ASSEMBLY_PLAQUE-1_PLAQUE
  *rigidbody, refnode=ASSEMBLY_PLAQUE-2_PLAQUE-REFPT_, elset=ASSEMBLY_PLAQUE-2_PLAQUE
  *rigidbody, refnode=ASSEMBLY_PLAQUE-1_PLAQUE-REFPT_, elset=ASSEMBLY_PLAQUE-1_PLAQUE
  *rigidbody, refnode=ASSEMBLY_PLAQUE-2_PLAQUE-REFPT_, elset=ASSEMBLY_PLAQUE-2_PLAQUE
  *shellsection, elset=ASSEMBLY_POT2-1_SET-3, material=PS-CHOC
  *shellsection, elset=ASSEMBLY_POT2-1_SET-2, material=PS-CHOC
  *shellsection, elset=ASSEMBLY_POT2-1_SET-1, material=PS-CHOC
  *rigidbody, refnode=ASSEMBLY_PLAQUE-1_PLAQUE-REFPT_, elset=ASSEMBLY_PLAQUE-1_PLAQUE
  *rigidbody, refnode=ASSEMBLY_PLAQUE-2_PLAQUE-REFPT_, elset=ASSEMBLY_PLAQUE-2_PLAQUE
  *friction
  *rigidbody, refnode=ASSEMBLY_PLAQUE-1_PLAQUE-REFPT_, elset=ASSEMBLY_PLAQUE-1_PLAQUE
  *rigidbody, refnode=ASSEMBLY_PLAQUE-2_PLAQUE-REFPT_, elset=ASSEMBLY_PLAQUE-2_PLAQUE
  *output, field, variable=PRESELECT
  *output, history, variable=PRESELECT
  *Step, name=Step-1, nlgeom=YES
  *Step, name=Step-1, nlgeom=YES
  *dynamic, explicit
  *boundary, type=VELOCITY
  *boundary
  *output, field, variable=PRESELECT
  *output, history, variable=PRESELECT
  *endstep
  *surface, type=ELEMENT, name=ASSEMBLY_BAS
  *surface, type=ELEMENT, name=ASSEMBLY_HAUT
  *surfaceinteraction, name=INTPROP-1
  *friction
  *Step, name=Step-1, nlgeom=YES
  *dynamic, explicit
  *boundary, type=VELOCITY
  *boundary

 ***WARNING: THE OPTION *BOUNDARY,TYPE=DISPLACEMENT HAS BEEN USED; CHECK STATUS 
             FILE BETWEEN STEPS FOR WARNINGS ON ANY JUMPS PRESCRIBED ACROSS THE 
             STEPS IN DISPLACEMENT VALUES OF TRANSLATIONAL DOF. FOR ROTATIONAL 
             DOF MAKE SURE THAT THERE ARE NO SUCH JUMPS. ALL JUMPS IN 
             DISPLACEMENTS ACROSS STEPS ARE IGNORED
  *contact, op=NEW
  *contactinclusions, allexterior
  *contactpropertyassignment
  *endstep



                            P R O B L E M   S I Z E


          NUMBER OF ELEMENTS IS                                  1243
          NUMBER OF NODES IS                                     1302
          NUMBER OF NODES DEFINED BY THE USER                    1302
          TOTAL NUMBER OF VARIABLES IN THE MODEL                 5646
          (DEGREES OF FREEDOM PLUS MAX NO. OF ANY LAGRANGE MULTIPLIER
           VARIABLES. INCLUDE *PRINT,SOLVE=YES TO GET THE ACTUAL NUMBER.)



                              END OF USER INPUT PROCESSING



     JOB TIME SUMMARY
       USER TIME (SEC)      =  0.10000    
       SYSTEM TIME (SEC)    =   0.0000    
       TOTAL CPU TIME (SEC) =  0.10000    
       WALLCLOCK TIME (SEC) =          0
