*Heading
** Job name: pot2 Model name: Model-2
** Generated by: Abaqus/CAE 6.14-2
*Preprint, echo=NO, model=NO, history=NO, contact=NO
**
** PARTS
**
*Part, name=Plaque
*Node
      1,          45.,           0.,           0.
      2,           0.,           0.,           0.
      3,   43.9108391,           0.,   9.84064865
      4,   40.6960716,           0.,   19.2049389
      5,    35.511322,           0.,   27.6395721
      6,   28.6075687,           0.,    34.736248
      7,   24.6126671,           0.,    37.672493
      8,   15.7786903,           0.,   42.1430054
      9,   6.18091011,           0.,    44.573494
     10,  -3.71607065,           0.,    44.846302
     11,  -13.4331665,           0.,   42.9482269
     12,        -22.5,           0.,   38.9711418
     13,  -30.4776707,           0.,   33.1075745
     14,  -36.9800034,           0.,   25.6413631
     15,   -41.692234,           0.,   16.9339218
     16,  -44.3862572,           0.,    7.4067564
     17,  -44.9316673,           0.,   2.47894931
     18,  -44.3862572,           0.,   -7.4067564
     19,   -41.692234,           0.,  -16.9339218
     20,  -36.9800034,           0.,  -25.6413631
** ... 341 like lines cut
*Element, type=R3D3
 1, 267, 210, 208
 2, 294, 263, 259
 3, 267, 211, 210
 4, 358, 353, 323
 5, 336, 280, 324
 6, 342, 352, 337
 7, 345, 310, 319
 8, 209, 179, 180
 9, 216, 270, 214
10, 238, 356, 237
11, 339, 251, 245
*Element, type=R3D4
 12,  32,   1,  40, 189
 13,  32,  33,  67, 344
 14, 135,  65,  31, 188
 15,  64, 134,  69,  29
 16,  63, 133,  70,  28
 17,  62, 132,  71,  27
 18, 131,  61,  26, 108
 19,  60, 130,  73,  24
 20,  59, 129,  74,  23
 21,  58, 128,  75,  22
 22,  57, 127,  76,  21
 23,  56, 126,  77,  20
 24,  55, 125,  78,  19
 25,  54, 124,  79,  18
 26,  53, 123,  80,  17
 27,  16,  81, 122,  52
 28,  51, 121,  83,  14
 29,  50, 120,  84,  13
 30,  49, 119,  85,  12
 31,  48, 118,  86,  11
** ... 306 like lines cut
*Node
    362,          45.,           0.,           0.
*Nset, nset=Plaque-RefPt_, internal
362, 
*Elset, elset=Plaque, generate
   1,  337,    1
*End Part
**  
*Part, name=Pot2
*Node
      1,          16.,           4.,           0.
      2,          15.,           5.,           0.
      3,          29.,          24.,           0.
      4,          22.,           4.,           0.
      5,          29.,          70.,           0.
      6,           0.,           5.,           0.
      7,          33.,          70.,           0.
      8,   15.2169046,           4.,   4.94427204
      9,    12.944272,           4.,    9.4045639
     10,    9.4045639,           4.,    12.944272
     11,   4.94427204,           4.,   15.2169046
     12,           0.,           4.,          16.
     13,  -4.94427204,           4.,   15.2169046
     14,   -9.4045639,           4.,    12.944272
     15,   -12.944272,           4.,    9.4045639
     16,  -15.2169046,           4.,   4.94427204
     17,         -16.,           4.,           0.
     18,  -15.2169046,           4.,  -4.94427204
     19,   -12.944272,           4.,   -9.4045639
     20,   -9.4045639,           4.,   -12.944272
** ... 558 like lines cut
*Element, type=S4R
 1,  1, 26, 45,  2
 2, 26, 25, 44, 45
 3, 25, 24, 43, 44
 4, 24, 23, 42, 43
 5, 23, 22, 41, 42
 6, 22, 21, 40, 41
 7, 21, 20, 39, 40
 8, 20, 19, 38, 39
 9, 19, 18, 37, 38
10, 18, 17, 36, 37
11, 17, 16, 35, 36
12, 16, 15, 34, 35
13, 15, 14, 33, 34
14, 14, 13, 32, 33
15, 13, 12, 31, 32
16, 12, 11, 30, 31
17, 11, 10, 29, 30
18, 10,  9, 28, 29
19,  9,  8, 27, 28
20,  8,  1,  2, 27
** ... 524 like lines cut
*Element, type=S3
450, 561, 550, 551
451,  37, 552,  38
452, 548,  33,  32
453, 549, 563, 557
454, 568,  28,  27
455, 562, 565, 563
487,  26, 112, 111
488, 110, 109,  25
489,  23, 107, 106
490, 575, 102, 101
491,  96,  17,  97
492,   9,  84,  83
493,  81,   8,  82
494,  87,  86,  11
495, 102, 574, 103
496, 569,  92,  91
497, 577, 578, 576
529, 143, 193, 192
530, 135, 183, 182
531, 131, 178, 177
** ... 5 like lines cut
*Nset, nset=Set-1
   5,   7, 113, 114, 115, 116, 117, 118, 119, 120, 121, 122, 123, 124, 125, 126
 127, 128, 129, 130, 131, 132, 133, 134, 135, 136, 137, 138, 139, 140, 141, 142
 143, 144, 155, 156, 157, 158, 159, 160, 161, 162, 163, 164, 165, 166, 167, 168
 169, 170, 171, 172, 173, 174, 175, 176, 177, 178, 179, 180, 181, 182, 183, 184
 185, 186, 187, 188, 189, 190, 191, 192, 193, 194
*Elset, elset=Set-1, generate
 529,  569,    1
*Nset, nset=Set-2
   3,   4,   5,  46,  47,  48,  49,  50,  51,  52,  53,  54,  55,  56,  57,  58
  59,  60,  61,  62,  63,  64,  65,  66,  67,  68,  69,  70,  71,  72,  73,  74
  75,  76,  77,  78,  79,  80,  81,  82,  83,  84,  85,  86,  87,  88,  89,  90
  91,  92,  93,  94,  95,  96,  97,  98,  99, 100, 101, 102, 103, 104, 105, 106
 107, 108, 109, 110, 111, 112, 113, 114, 115, 116, 117, 118, 119, 120, 121, 122
 123, 124, 125, 126, 127, 128, 129, 130, 131, 132, 133, 134, 135, 136, 137, 138
 139, 140, 141, 142, 143, 144, 145, 146, 147, 148, 149, 150, 151, 152, 195, 196
 197, 198, 199, 200, 201, 202, 203, 204, 205, 206, 207, 208, 209, 210, 211, 212
 213, 214, 215, 216, 217, 218, 219, 220, 221, 222, 223, 224, 225, 226, 227, 228
 229, 230, 231, 232, 233, 234, 235, 236, 237, 238, 239, 240, 241, 242, 243, 244
 245, 246, 247, 248, 249, 250, 251, 252, 253, 254, 255, 256, 257, 258, 259, 260
 261, 262, 263, 264, 265, 266, 267, 268, 269, 270, 271, 272, 273, 274, 275, 276
 277, 278, 279, 280, 281, 282, 283, 284, 285, 286, 287, 288, 289, 290, 291, 292
 293, 294, 295, 296, 297, 298, 299, 300, 301, 302, 303, 304, 305, 306, 307, 308
 309, 310, 311, 312, 313, 314, 315, 316, 317, 318, 319, 320, 321, 322, 323, 324
 325, 326, 327, 328, 329, 330, 331, 332, 333, 334, 335, 336, 337, 338, 339, 340
 341, 342, 343, 344, 345, 346, 347, 348, 349, 350, 351, 352, 353, 354, 355, 356
 357, 358, 359, 360, 361, 362, 363, 364, 365, 366, 367, 368, 369, 370, 371, 372
 373, 374, 375, 376, 377, 378, 379, 380, 381, 382, 383, 384, 385, 386, 387, 388
 389, 390, 391, 392, 393, 394, 395, 396, 397, 398, 399, 400, 401, 402, 403, 404
** ... 9 like lines cut
*Elset, elset=Set-2, generate
  21,  449,    1
*Nset, nset=Set-3
   1,   2,   4,   6,   8,   9,  10,  11,  12,  13,  14,  15,  16,  17,  18,  19
  20,  21,  22,  23,  24,  25,  26,  27,  28,  29,  30,  31,  32,  33,  34,  35
  36,  37,  38,  39,  40,  41,  42,  43,  44,  45,  81,  82,  83,  84,  85,  86
  87,  88,  89,  90,  91,  92,  93,  94,  95,  96,  97,  98,  99, 100, 101, 102
 103, 104, 105, 106, 107, 108, 109, 110, 111, 112, 153, 154, 547, 548, 549, 550
 551, 552, 553, 554, 555, 556, 557, 558, 559, 560, 561, 562, 563, 564, 565, 566
 567, 568, 569, 570, 571, 572, 573, 574, 575, 576, 577, 578
*Elset, elset=Set-3
   1,   2,   3,   4,   5,   6,   7,   8,   9,  10,  11,  12,  13,  14,  15,  16
  17,  18,  19,  20, 450, 451, 452, 453, 454, 455, 456, 457, 458, 459, 460, 461
 462, 463, 464, 465, 466, 467, 468, 469, 470, 471, 472, 473, 474, 475, 476, 477
 478, 479, 480, 481, 482, 483, 484, 485, 486, 487, 488, 489, 490, 491, 492, 493
 494, 495, 496, 497, 498, 499, 500, 501, 502, 503, 504, 505, 506, 507, 508, 509
 510, 511, 512, 513, 514, 515, 516, 517, 518, 519, 520, 521, 522, 523, 524, 525
 526, 527, 528
** Section: rouge
*Shell Section, elset=Set-3, material=PS-choc
0.25, 5
** Section: gris
*Shell Section, elset=Set-2, material=PS-choc
0.15, 5
** Section: vert
*Shell Section, elset=Set-1, material=PS-choc
0.5, 5
*End Part
**  
**
** ASSEMBLY
**
*Assembly, name=Assembly
**  
*Instance, name=Plaque-1, part=Plaque
          0., 7.33333206176758,           0.
*End Instance
**  
*Instance, name=Plaque-2, part=Plaque
          0., 73.3333320617676,           0.
*End Instance
**  
*Instance, name=Pot2-1, part=Pot2
          0., 3.33333206176758,           0.
*End Instance
**  
*Nset, nset=Set-1, instance=Plaque-1
 362,
*Nset, nset=Set-2, instance=Plaque-2
 362,
*Elset, elset=_bas_SNEG, internal, instance=Plaque-1, generate
   1,  337,    1
*Surface, type=ELEMENT, name=bas
_bas_SNEG, SNEG
*Elset, elset=_haut_SPOS, internal, instance=Plaque-2, generate
   1,  337,    1
*Surface, type=ELEMENT, name=haut
_haut_SPOS, SPOS
*Rigid Body, ref node=Plaque-1.Plaque-RefPt_, elset=Plaque-1.Plaque
*Rigid Body, ref node=Plaque-2.Plaque-RefPt_, elset=Plaque-2.Plaque
*End Assembly
** 
** MATERIALS
** 
*Material, name=PS-choc
*Density
 1.12e-09,
*Elastic
1800., 0.35
*Plastic
   15.,   0.
 22.52, 0.02
 23.94, 0.04
  24.9, 0.06
 25.64, 0.08
 26.25,  0.1
 26.77, 0.12
 27.23, 0.14
 27.65, 0.16
 28.03, 0.18
 28.37,  0.2
  28.7, 0.22
   29., 0.24
 29.28, 0.26
 29.55, 0.28
  29.8,  0.3
 30.04, 0.32
 30.27, 0.34
 30.49, 0.36
  30.7, 0.38
** ... 6 like lines cut
** 
** INTERACTION PROPERTIES
** 
*Surface Interaction, name=IntProp-1
*Friction
 0.25,
** ----------------------------------------------------------------
** 
** STEP: Step-1
** 
*Step, name=Step-1, nlgeom=YES
*Dynamic, Explicit
, 0.1
*Bulk Viscosity
0.06, 1.2
** 
** BOUNDARY CONDITIONS
** 
** Name: BC-2 Type: Velocity/Angular velocity
*Boundary, type=VELOCITY
Set-2, 1, 1
Set-2, 2, 2, -150.
Set-2, 3, 3
Set-2, 4, 4
Set-2, 5, 5
Set-2, 6, 6
** Name: plaqueBas Type: Symmetry/Antisymmetry/Encastre
*Boundary
Set-1, ENCASTRE
** 
** INTERACTIONS
** 
** Interaction: Int-1
*Contact, op=NEW
*Contact Inclusions, ALL EXTERIOR
*Contact Property Assignment
 ,  , IntProp-1
** 
** OUTPUT REQUESTS
** 
*Restart, write, number interval=1, time marks=NO
** 
** FIELD OUTPUT: F-Output-1
** 
*Output, field, variable=PRESELECT
** 
** HISTORY OUTPUT: H-Output-1
** 
*Output, history, variable=PRESELECT
*End Step
